   ae   Fe GS 3s2 3p6 3d6 4s2
 n=Fe c=pbr
       0.0       0.0       0.0       0.0       0.0       0.0
    3    4
    3    0      2.00      0.00
    3    1      6.00      0.00
    3    2      6.00      0.00
    4    0      2.00      0.00
   ae   Fe  3d7 4s1
 n=Fe c=pbr
       0.0       0.0       0.0       0.0       0.0       0.0
    3    4
    3    0      2.00      0.00
    3    1      6.00      0.00
    3    2      7.00      0.00
    4    0      1.00      0.00
   ae   Fe  3d7 4s0 4p1
 n=Fe c=pbr
       0.0       0.0       0.0       0.0       0.0       0.0
    3    5
    3    0      2.00      0.00
    3    1      6.00      0.00
    3    2      7.00      0.00
    4    0      0.00      0.00
    4    1      1.00      0.00
   ae   Fe  3d6 4s1 4p1
 n=Fe c=pbr
       0.0       0.0       0.0       0.0       0.0       0.0
    3    5
    3    0      2.00      0.00
    3    1      6.00      0.00
    3    2      6.00      0.00
    4    0      1.00      0.00
    4    1      1.00      0.00
   ae   Fe  3d6 4s1  (+1)
 n=Fe c=pbr
       0.0       0.0       0.0       0.0       0.0       0.0
    3    4
    3    0      2.00      0.00
    3    1      6.00      0.00
    3    2      6.00      0.00
    4    0      1.00      0.00
   ae   Fe  3d6   (+2)
 n=Fe c=pbr
       0.0       0.0       0.0       0.0       0.0       0.0
    3    5
    3    0      2.00      0.00
    3    1      6.00      0.00
    3    2      6.00      0.00
    4    0      0.00      0.00
    4    1      0.00      0.00
#
#   PS test
#
   pt   Fe GS 3s2 3p6 3d6 4s2
 n=Fe c=pbr
       0.0       0.0       0.0       0.0       0.0       0.0
    3    4
    3    0      2.00      0.00
    3    1      6.00      0.00
    3    2      6.00      0.00
    4    0      2.00      0.00
   pt   Fe  3d7 4s1
 n=Fe c=pbr
       0.0       0.0       0.0       0.0       0.0       0.0
    3    4
    3    0      2.00      0.00
    3    1      6.00      0.00
    3    2      7.00      0.00
    4    0      1.00      0.00
   pt   Fe  3d7 4s0 4p1
 n=Fe c=pbr
       0.0       0.0       0.0       0.0       0.0       0.0
    3    5
    3    0      2.00      0.00
    3    1      6.00      0.00
    3    2      7.00      0.00
    4    0      0.00      0.00
    4    1      1.00      0.00
   pt   Fe  3d6 4s1 4p1
 n=Fe c=pbr
       0.0       0.0       0.0       0.0       0.0       0.0
    3    5
    3    0      2.00      0.00
    3    1      6.00      0.00
    3    2      6.00      0.00
    4    0      1.00      0.00
    4    1      1.00      0.00
   pt   Fe  3d6 4s1  (+1)
 n=Fe c=pbr
       0.0       0.0       0.0       0.0       0.0       0.0
    3    4
    3    0      2.00      0.00
    3    1      6.00      0.00
    3    2      6.00      0.00
    4    0      1.00      0.00
   pt   Fe  3d6   (+2)
 n=Fe c=pbr
       0.0       0.0       0.0       0.0       0.0       0.0
    3    5
    3    0      2.00      0.00
    3    1      6.00      0.00
    3    2      6.00      0.00
    4    0      0.00      0.00
    4    1      0.00      0.00
