#
# Cu
#
   ae  Test Ground state
 n=Cu c=rvr     
       0.0       0.0       0.0       0.0       0.0       0.0
    5    3
    4    0      1.00      0.00
    4    1      0.00      0.00
    3    2     10.00      0.00
   ae  Test 4s0.5 4p0.5 3d10  --------------------------
 n=Cu c=rvr     
       0.0       0.0       0.0       0.0       0.0       0.0
    5    3
    4    0      0.50      0.00
    4    1      0.50      0.00
    3    2     10.00      0.00
   ae  Test 4s0.0 4p1.0 3d10
 n=Cu c=rvr     
       0.0       0.0       0.0       0.0       0.0       0.0
    5    3
    4    0      0.00      0.00
    4    1      1.00      0.00
    3    2     10.00      0.00
   ae  Test 4s2.0 4p0.0 3d9
 n=Cu c=rvr     
       0.0       0.0       0.0       0.0       0.0       0.0
    5    3
    4    0      2.00      0.00
    4    1      0.00      0.00
    3    2      9.00      0.00

   pt  Test Ground state
 n=Cu c=rvr     
       0.0       0.0       0.0       0.0       0.0       0.0
    5    3
    4    0      1.00      0.00
    4    1      0.00      0.00
    3    2     10.00      0.00
   pt  Test 4s0.5 4p0.5 3d10  --------------------------
 n=Cu c=rvr     
       0.0       0.0       0.0       0.0       0.0       0.0
    5    3
    4    0      0.50      0.00
    4    1      0.50      0.00
    3    2     10.00      0.00
   pt  Test 4s0.0 4p1.0 3d10
 n=Cu c=rvr     
       0.0       0.0       0.0       0.0       0.0       0.0
    5    3
    4    0      0.00      0.00
    4    1      1.00      0.00
    3    2     10.00      0.00
   pt  Test 4s2.0 4p0.0 3d9
 n=Cu c=rvr     
       0.0       0.0       0.0       0.0       0.0       0.0
    5    3
    4    0      2.00      0.00
    4    1      0.00      0.00
    3    2      9.00      0.00

#23456789012345678901234567890123456789012345678901234567890

