#
#  Note that this configuration is ionic (+2)
#
   pg Ba with 5s as semicore, 5p in valence -- soft Vf
        tm2     3.00
 n=Ba c=car
       0.0       0.0      0.0       0.0       0.0        0.0
    9    4
    5    0      2.00                            # 5s2
    5    1      6.00                            # 5p6
    5    2      0.00    
    4    3      0.00
      1.75      2.00      2.50      2.50     0.00       0.00

#23456789012345678901234567890123456789012345678901234567890      Ruler

