#
# Cu
#
   pg      Cu with 3d states in valence (as in TM paper)
        tm2     2.60
 n=Cu c=car     
       0.0       0.0       0.0       0.0       0.0       0.0
    5    3
    4    0      1.00      0.00
    4    1      0.00      0.00
    3    2     10.00      0.00
      2.10      2.30      2.10       0.0       0.0       0.0 

#23456789012345678901234567890123456789012345678901234567890
