# Carbon pseudopotential. VDW-DF XC (Dion et al). 
# rc's taken from sample C.inp for LDA (JMS Sep.2009)
#
   pg C TM2 Pseudopotencial GS ref
        tm2     3.00
   C    vw
         0
    1    3
    2    0      2.00
    2    1      2.00
    3    2      0.00
      1.50      1.54      1.54       0.0       0.0

12345678901234567890123456789012345678901234567890      Ruler
