#
#  Pseudopotential generation for S
#  pg: simple generation
#
   pe      Gallium
        tm2      2.1
   Ga   pbr
       0.0       0.0       0.0       0.0       0.0       0.0
    6    4
    4    0      2.00      0.00
    4    1      1.00      0.00
    4    2      0.00      0.00
    4    3      0.00      0.00
      2.10      2.50      3.00      3.00      1.10      1.65
#23456789012345678901234567890123456789012345678901234567890
