#
#  Pseudopotential generation for S
#  pg: simple generation
#
   pe      Cadmium
        tm2      2.1
   Cd   pbr
       0.0       0.0       0.0       0.0       0.0       0.0
    6    4
    5    0      2.00      0.00
    5    1      1.00      0.00
    4    2     10.00      0.00
    4    3      0.00      0.00
      2.47      2.50      2.47      2.47      1.10      1.65
#23456789012345678901234567890123456789012345678901234567890
