   ae      Sodium GS 3s1 3p0 3d0
 n=Na c=ca 
       0.0       0.0       0.0       0.0       0.0       0.0
    3    3
    3    0      1.00      0.00
    3    1      0.00      0.00
    3    2      0.00      0.00
   ae      Sodium  3s0.5 3p0 3d0
 n=Na c=ca 
       0.0       0.0       0.0       0.0       0.0       0.0
    3    3
    3    0      0.50      0.00
    3    1      0.00      0.00
    3    2      0.00      0.00
   ae      Sodium GS 3s0 3p0 3d0
 n=Na c=ca 
       0.0       0.0       0.0       0.0       0.0       0.0
    3    3
    3    0      0.00      0.00
    3    1      0.00      0.00
    3    2      0.00      0.00
   ae      Sodium GS 3s0 3p1 3d0
 n=Na c=ca 
       0.0       0.0       0.0       0.0       0.0       0.0
    3    3
    3    0      0.00      0.00
    3    1      1.00      0.00
    3    2      0.00      0.00
#
#  Pseudo test
#
   pt      Sodium GS 3s1 3p0 3d0
 n=Na c=ca 
       0.0       0.0       0.0       0.0       0.0       0.0
    3    3
    3    0      1.00      0.00
    3    1      0.00      0.00
    3    2      0.00      0.00
   pt      Sodium  3s0.5 3p0 3d0
 n=Na c=ca 
       0.0       0.0       0.0       0.0       0.0       0.0
    3    3
    3    0      0.50      0.00
    3    1      0.00      0.00
    3    2      0.00      0.00
   pt      Sodium GS 3s0 3p0 3d0
 n=Na c=ca 
       0.0       0.0       0.0       0.0       0.0       0.0
    3    3
    3    0      0.00      0.00
    3    1      0.00      0.00
    3    2      0.00      0.00
   pt      Sodium GS 3s0 3p1 3d0
 n=Na c=ca 
       0.0       0.0       0.0       0.0       0.0       0.0
    3    3
    3    0      0.00      0.00
    3    1      1.00      0.00
    3    2      0.00      0.00
