#
#  Pseudopotential generation for S
#  pg: simple generation
#
   pe      As
        tm2      2.5
   As   pbr
       0.0       0.0       0.0       0.0       0.0       0.0
    6    4
    4    0      2.00      0.00
    4    1      3.00      0.00
    4    2      0.00      0.00
    4    3      0.00      0.00
      1.80      2.20      2.50      3.00      1.10      1.40
#23456789012345678901234567890123456789012345678901234567890
